################################################################################
units           real
boundary        p p p
atom_style      full
neighbor        2.0 bin
neigh_modify    delay 5 every 1

pair_style      lj/cut/coul/long 12.0
bond_style      harmonic
angle_style     harmonic
dihedral_style  fourier
improper_style  cvff
kspace_style    pppm 1e-5
special_bonds   amber

read_data       "sys_init.lmps" extra/special/per/atom 3
Reading data file ...
  orthogonal box = (0 0 0) to (60 60 60)
  reading atoms ...
  4400 atoms
  scanning bonds ...
  scanning angles ...
  scanning dihedrals ...
  scanning impropers ...
  orthogonal box = (0 0 0) to (60 60 60)
  reading bonds ...
  4350 bonds
  reading angles ...
  7200 angles
  reading dihedrals ...
  10050 dihedrals
  reading impropers ...
  300 impropers
Finding 1-2 1-3 1-4 neighbors ...
     4 = max # of 1-2 neighbors
     6 = max # of 1-3 neighbors
    12 = max # of 1-4 neighbors
    19 = max # of special neighbors
include         "system.in.settings"
pair_coeff 1 1 0.0988 3.3152123099438304
pair_coeff 2 2 0.0988 3.3152123099438304
pair_coeff 3 3 0.1078 3.397709531243626
pair_coeff 4 4 0.0208 2.4219972551363265
pair_coeff 5 5 0.0208 2.600176998764394
pair_coeff 6 6 0.0100 1.1064962079303013
pair_coeff 7 7 0.0208 1.8874580242521226
pair_coeff 8 8 0.2638 3.465952373053176
pair_coeff 9 9 0.1636 3.1808647832482673
pair_coeff 10 10 0.0858 3.36510263815969
pair_coeff 11 11 0.1463 3.048120874245357
bond_coeff 1 481.8 1.3340 # SOURCE1_SOURCE5 3727 0.0053
bond_coeff 2 393.9 1.0870 # SOURCE3 789 0.0046
bond_coeff 3 232.5 1.5380 # SOURCE1_SOURCE5 88072 0.0058
bond_coeff 4 375.9 1.0970 # SOURCE3_SOURCE5 112144 0.0055
bond_coeff 5 375.9 1.0970 # SOURCE3_SOURCE5 133628 0.0015
bond_coeff 6 263.8 1.4620 # SOURCE1_SOURCE5 4576 0.0061
bond_coeff 7 261.2 1.4650 # SOURCE1_SOURCE5 15206 0.0039
bond_coeff 8 368.2 1.4060 # SOURCE3 2 0.0370
bond_coeff 9 156.2 1.8030 # SOURCE3_SOURCE5 16 0.0187
bond_coeff 10 356.2 1.3790 # SOURCE1_SOURCE5 9463 0.0137
bond_coeff 11 652.6 1.2180 # SOURCE1_SOURCE5 27083 0.0110
bond_coeff 12 511.3 1.0190 # SOURCE3_SOURCE5 5944 0.0012
angle_coeff 1 71.5 121.81 # SOURCE3 10 0.3843
angle_coeff 2 50.5 119.70 # SOURCE3 1
angle_coeff 3 69.9 120.70 # SOURCE3 1
angle_coeff 4 64.9 111.51 # SOURCE3_SOURCE5 61999 1.8007
angle_coeff 5 46.9 109.56 # SOURCE3_SOURCE5 55294 0.8125
angle_coeff 6 46.8 109.80 # SOURCE3_SOURCE5 179054 0.7972
angle_coeff 7 83.3 111.04 # SOURCE3_SOURCE5 12086 1.5519
angle_coeff 8 83.2 111.61 # SOURCE3_SOURCE5 3543 1.6672
angle_coeff 9 38.8 108.46 # SOURCE3_SOURCE5 50971 0.8222
angle_coeff 10 61.2 109.88 # SOURCE3_SOURCE5 20428 1.2681
angle_coeff 11 61.5 108.88 # SOURCE3_SOURCE5 6816 1.0842
angle_coeff 12 39.0 107.58 # SOURCE3_SOURCE5 92717 0.5328
angle_coeff 13 91.2 119.12 # SOURCE3 2
angle_coeff 14 89.0 120.69 # SOURCE3_SOURCE5 14 1.1076
angle_coeff 15 113.8 123.05 # SOURCE3_SOURCE5 8454 1.5552
angle_coeff 16 65.7 112.35 # SOURCE3_SOURCE5 10425 1.3688
angle_coeff 17 47.8 109.29 # SOURCE3_SOURCE5 6742 0.6614
angle_coeff 18 64.9 115.64 # SOURCE4_SOURCE5 1017 2.0256
angle_coeff 19 65.3 120.69 # SOURCE3_SOURCE5 4556 2.1510
dihedral_coeff 1 1 2.175 2 180.0 # intrpol.bsd.on C6H6
dihedral_coeff 2 1 2.5 2 180.0 # AA,NMA (no c-n3, c-n4, c-nh)
dihedral_coeff 3 1 6.65 2 180.0 # c2=c2 double bond, intrpol.bsd.on C6H6
dihedral_coeff 4 1 0.15555555555555556 3 0.0 # JCC,7,(1986),230
dihedral_coeff 5 1 0.0 2 0.0 # JCC,7,(1986),230
dihedral_coeff 6 1 0.3 3 0.0 # Junmei et al, 1999
dihedral_coeff 7 2 2.175 2 180.0 0.3 3 0.0 # Junmei et al, 1999 TorType=1
dihedral_coeff 8 3 0.13 3 0.0 0.29 2 180.0 0.11 1 0.0 # c42 GA AUE=0.2720 RMSE=0.3206 TorType=2
dihedral_coeff 9 1 0.12 3 0.0 # m1 SS AUE=0.2420 RMSE=0.2944 TorType=2
dihedral_coeff 10 1 0.08 3 0.0 # t2 SS AUE=0.2507 RMSE=0.3027 TorType=3
dihedral_coeff 11 3 0.65 4 180.0 0.03 3 180.0 2.26 1 0.0 # sialic2 GA AUE=1.1541 RMSE=1.2847 TorType=3
dihedral_coeff 12 1 0.225 3 0.0 # c46 SS AUE=0.2936 RMSE=0.3481 TorType=3
dihedral_coeff 13 1 0.0 2 180.0 # c44 SS AUE=0.1670 RMSE=0.1874 TorType=3
dihedral_coeff 14 1 0.217 3 0.0 # m20 SS AUE=0.7039 RMSE=0.8271 TorType=3
dihedral_coeff 15 2 0.58 3 0.0 0.28 2 180.0 # m14 GA AUE=0.4298 RMSE=0.5205 TorType=3
improper_coeff 1 10.5 -1 2 # JCC,7,(1986),230
improper_coeff 2 1.1 -1 2 # JCC,7,(1986),230

################################################################################
# 刚性约束，减少开销
# fix             frigid benzene rigid single
# fix             shake all shake 0.0001 20 0 b 1 a 1

molecule        pre pre_mol.data
Read molecule template pre:
LAMMPS Description Bonding_Atoms  3 17 ['Delete_Atoms 18 11']
  1 molecules
  0 fragments
  19 atoms with max type 11
  18 bonds with max type 12
  30 angles with max type 17
  36 dihedrals with max type 15
  1 impropers with max type 1
molecule        post post_0_mol.data
Read molecule template post:
LAMMPS Description Bonding_Atoms  3 17 ['Delete_Atoms 18 11']
  1 molecules
  0 fragments
  19 atoms with max type 11
  17 bonds with max type 11
  30 angles with max type 19
  40 dihedrals with max type 15
  2 impropers with max type 2

group           N_single molecule <> 1 100
1600 atoms in group N_single
group           Cl_single molecule <> 101 200
1800 atoms in group Cl_single
group           sol subtract all N_single Cl_single
1000 atoms in group sol

minimize        1.0e-5 1.0e-5 100000 400000

CITE-CITE-CITE-CITE-CITE-CITE-CITE-CITE-CITE-CITE-CITE-CITE-CITE

Your simulation uses code contributions which should be cited:

- GPU package (short-range, long-range and three-body potentials): doi:10.1016/j.cpc.2010.12.021, doi:10.1016/j.cpc.2011.10.012, doi:10.1016/j.cpc.2013.08.002, doi:10.1016/j.commatsci.2014.10.068, doi:10.1016/j.cpc.2016.10.020, doi:10.3233/APC200086

@Article{Brown11,
 author = {W. M. Brown and P. Wang and S. J. Plimpton and A. N. Tharrington},
 title = {Implementing Molecular Dynamics on Hybrid High Performance Computers---Short Range Forces},
 journal = {Comput.\ Phys.\ Commun.},
 year =    2011,
 volume =  182,
 pages =   {898--911},
 doi =     {10.1016/j.cpc.2010.12.021}
}

@Article{Brown12,
 author = {W. M. Brown and A. Kohlmeyer and S. J. Plimpton and A. N. Tharrington},
 title = {Implementing Molecular Dynamics on Hybrid High Performance Computers - Particle-Particle Particle-Mesh},
 journal = {Comput.\ Phys.\ Commun.},
 year =    2012,
 volume =  183,
 doi =     {10.1016/j.cpc.2011.10.012},
 pages =   {449--459}
}

@Article{Brown13,
 author = {W. M. Brown and Y. Masako},
 title = {Implementing Molecular Dynamics on Hybrid High Performance Computers---Three-Body Potentials},
 journal = {Comput.\ Phys.\ Commun.},
 year =    2013,
 volume =  184,
 pages =   {2785--2793},
 doi =     {10.1016/j.cpc.2013.08.002},
}

@Article{Trung15,
 author = {T. D. Nguyen and S. J. Plimpton},
 title = {Accelerating Dissipative Particle Dynamics Simulations for Soft Matter Systems},
 journal = {Comput.\ Mater.\ Sci.},
 year =    2015,
 doi =     {10.1016/j.commatsci.2014.10.068},
 volume =  100,
 pages =   {173--180}
}

@Article{Trung17,
 author = {T. D. Nguyen},
 title = {{GPU}-Accelerated {T}ersoff Potentials for Massively Parallel
    Molecular Dynamics Simulations},
 journal = {Comput.\ Phys.\ Commun.},
 year =    2017,
 doi =     {10.1016/j.cpc.2016.10.020},
 volume =  212,
 pages =   {113--122}
}

@inproceedings{Nikolskiy19,
 author = {V. Nikolskiy and V. Stegailov},
 title = {{GPU} Acceleration of Four-Site Water Models in {LAMMPS}},
 booktitle = {Proceedings of the International Conference on Parallel
    Computing (ParCo 2019), Prague, Czech Republic},
 doi =     {10.3233/APC200086},
 year =    2019
}

CITE-CITE-CITE-CITE-CITE-CITE-CITE-CITE-CITE-CITE-CITE-CITE-CITE

PPPM initialization ...
################################################################################
units           real
boundary        p p p
atom_style      full
neighbor        2.0 bin
neigh_modify    delay 5 every 1

pair_style      lj/cut/coul/long 12.0
bond_style      harmonic
angle_style     harmonic
dihedral_style  fourier
improper_style  cvff
kspace_style    pppm 1e-5
special_bonds   amber

read_data       "sys_init.lmps" extra/special/per/atom 3
Reading data file ...
  orthogonal box = (0 0 0) to (60 60 60)
  reading atoms ...
  4400 atoms
  scanning bonds ...
  scanning angles ...
  scanning dihedrals ...
  scanning impropers ...
  orthogonal box = (0 0 0) to (60 60 60)
  reading bonds ...
  4350 bonds
  reading angles ...
  7200 angles
  reading dihedrals ...
  10050 dihedrals
  reading impropers ...
  300 impropers
Finding 1-2 1-3 1-4 neighbors ...
     4 = max # of 1-2 neighbors
     6 = max # of 1-3 neighbors
    12 = max # of 1-4 neighbors
    19 = max # of special neighbors
include         "system.in.settings"
pair_coeff 1 1 0.0988 3.3152123099438304
pair_coeff 2 2 0.0988 3.3152123099438304
pair_coeff 3 3 0.1078 3.397709531243626
pair_coeff 4 4 0.0208 2.4219972551363265
pair_coeff 5 5 0.0208 2.600176998764394
pair_coeff 6 6 0.0100 1.1064962079303013
pair_coeff 7 7 0.0208 1.8874580242521226
pair_coeff 8 8 0.2638 3.465952373053176
pair_coeff 9 9 0.1636 3.1808647832482673
pair_coeff 10 10 0.0858 3.36510263815969
pair_coeff 11 11 0.1463 3.048120874245357
bond_coeff 1 481.8 1.3340 # SOURCE1_SOURCE5 3727 0.0053
bond_coeff 2 393.9 1.0870 # SOURCE3 789 0.0046
bond_coeff 3 232.5 1.5380 # SOURCE1_SOURCE5 88072 0.0058
bond_coeff 4 375.9 1.0970 # SOURCE3_SOURCE5 112144 0.0055
bond_coeff 5 375.9 1.0970 # SOURCE3_SOURCE5 133628 0.0015
bond_coeff 6 263.8 1.4620 # SOURCE1_SOURCE5 4576 0.0061
bond_coeff 7 261.2 1.4650 # SOURCE1_SOURCE5 15206 0.0039
bond_coeff 8 368.2 1.4060 # SOURCE3 2 0.0370
bond_coeff 9 156.2 1.8030 # SOURCE3_SOURCE5 16 0.0187
bond_coeff 10 356.2 1.3790 # SOURCE1_SOURCE5 9463 0.0137
bond_coeff 11 652.6 1.2180 # SOURCE1_SOURCE5 27083 0.0110
bond_coeff 12 511.3 1.0190 # SOURCE3_SOURCE5 5944 0.0012
angle_coeff 1 71.5 121.81 # SOURCE3 10 0.3843
angle_coeff 2 50.5 119.70 # SOURCE3 1
angle_coeff 3 69.9 120.70 # SOURCE3 1
angle_coeff 4 64.9 111.51 # SOURCE3_SOURCE5 61999 1.8007
angle_coeff 5 46.9 109.56 # SOURCE3_SOURCE5 55294 0.8125
angle_coeff 6 46.8 109.80 # SOURCE3_SOURCE5 179054 0.7972
angle_coeff 7 83.3 111.04 # SOURCE3_SOURCE5 12086 1.5519
angle_coeff 8 83.2 111.61 # SOURCE3_SOURCE5 3543 1.6672
angle_coeff 9 38.8 108.46 # SOURCE3_SOURCE5 50971 0.8222
angle_coeff 10 61.2 109.88 # SOURCE3_SOURCE5 20428 1.2681
angle_coeff 11 61.5 108.88 # SOURCE3_SOURCE5 6816 1.0842
angle_coeff 12 39.0 107.58 # SOURCE3_SOURCE5 92717 0.5328
angle_coeff 13 91.2 119.12 # SOURCE3 2
angle_coeff 14 89.0 120.69 # SOURCE3_SOURCE5 14 1.1076
angle_coeff 15 113.8 123.05 # SOURCE3_SOURCE5 8454 1.5552
angle_coeff 16 65.7 112.35 # SOURCE3_SOURCE5 10425 1.3688
angle_coeff 17 47.8 109.29 # SOURCE3_SOURCE5 6742 0.6614
angle_coeff 18 64.9 115.64 # SOURCE4_SOURCE5 1017 2.0256
angle_coeff 19 65.3 120.69 # SOURCE3_SOURCE5 4556 2.1510
dihedral_coeff 1 1 2.175 2 180.0 # intrpol.bsd.on C6H6
dihedral_coeff 2 1 2.5 2 180.0 # AA,NMA (no c-n3, c-n4, c-nh)
dihedral_coeff 3 1 6.65 2 180.0 # c2=c2 double bond, intrpol.bsd.on C6H6
dihedral_coeff 4 1 0.15555555555555556 3 0.0 # JCC,7,(1986),230
dihedral_coeff 5 1 0.0 2 0.0 # JCC,7,(1986),230
dihedral_coeff 6 1 0.3 3 0.0 # Junmei et al, 1999
dihedral_coeff 7 2 2.175 2 180.0 0.3 3 0.0 # Junmei et al, 1999 TorType=1
dihedral_coeff 8 3 0.13 3 0.0 0.29 2 180.0 0.11 1 0.0 # c42 GA AUE=0.2720 RMSE=0.3206 TorType=2
dihedral_coeff 9 1 0.12 3 0.0 # m1 SS AUE=0.2420 RMSE=0.2944 TorType=2
dihedral_coeff 10 1 0.08 3 0.0 # t2 SS AUE=0.2507 RMSE=0.3027 TorType=3
dihedral_coeff 11 3 0.65 4 180.0 0.03 3 180.0 2.26 1 0.0 # sialic2 GA AUE=1.1541 RMSE=1.2847 TorType=3
dihedral_coeff 12 1 0.225 3 0.0 # c46 SS AUE=0.2936 RMSE=0.3481 TorType=3
dihedral_coeff 13 1 0.0 2 180.0 # c44 SS AUE=0.1670 RMSE=0.1874 TorType=3
dihedral_coeff 14 1 0.217 3 0.0 # m20 SS AUE=0.7039 RMSE=0.8271 TorType=3
dihedral_coeff 15 2 0.58 3 0.0 0.28 2 180.0 # m14 GA AUE=0.4298 RMSE=0.5205 TorType=3
improper_coeff 1 10.5 -1 2 # JCC,7,(1986),230
improper_coeff 2 1.1 -1 2 # JCC,7,(1986),230

################################################################################
# 刚性约束，减少开销
# fix             frigid benzene rigid single
# fix             shake all shake 0.0001 20 0 b 1 a 1

molecule        pre pre_mol.data
Read molecule template pre:
LAMMPS Description Bonding_Atoms  3 17 ['Delete_Atoms 18 11']
  1 molecules
  0 fragments
  19 atoms with max type 11
  18 bonds with max type 12
  30 angles with max type 17
  36 dihedrals with max type 15
  1 impropers with max type 1
molecule        post post_0_mol.data
Read molecule template post:
LAMMPS Description Bonding_Atoms  3 17 ['Delete_Atoms 18 11']
  1 molecules
  0 fragments
  19 atoms with max type 11
  17 bonds with max type 11
  30 angles with max type 19
  40 dihedrals with max type 15
  2 impropers with max type 2

group           N_single molecule <> 1 100
1600 atoms in group N_single
group           Cl_single molecule <> 101 200
1800 atoms in group Cl_single
group           sol subtract all N_single Cl_single
1000 atoms in group sol

minimize        1.0e-5 1.0e-5 100000 400000

CITE-CITE-CITE-CITE-CITE-CITE-CITE-CITE-CITE-CITE-CITE-CITE-CITE

Your simulation uses code contributions which should be cited:

- GPU package (short-range, long-range and three-body potentials): doi:10.1016/j.cpc.2010.12.021, doi:10.1016/j.cpc.2011.10.012, doi:10.1016/j.cpc.2013.08.002, doi:10.1016/j.commatsci.2014.10.068, doi:10.1016/j.cpc.2016.10.020, doi:10.3233/APC200086

@Article{Brown11,
 author = {W. M. Brown and P. Wang and S. J. Plimpton and A. N. Tharrington},
 title = {Implementing Molecular Dynamics on Hybrid High Performance Computers---Short Range Forces},
 journal = {Comput.\ Phys.\ Commun.},
 year =    2011,
 volume =  182,
 pages =   {898--911},
 doi =     {10.1016/j.cpc.2010.12.021}
}

@Article{Brown12,
 author = {W. M. Brown and A. Kohlmeyer and S. J. Plimpton and A. N. Tharrington},
 title = {Implementing Molecular Dynamics on Hybrid High Performance Computers - Particle-Particle Particle-Mesh},
 journal = {Comput.\ Phys.\ Commun.},
 year =    2012,
 volume =  183,
 doi =     {10.1016/j.cpc.2011.10.012},
 pages =   {449--459}
}

@Article{Brown13,
 author = {W. M. Brown and Y. Masako},
 title = {Implementing Molecular Dynamics on Hybrid High Performance Computers---Three-Body Potentials},
 journal = {Comput.\ Phys.\ Commun.},
 year =    2013,
 volume =  184,
 pages =   {2785--2793},
 doi =     {10.1016/j.cpc.2013.08.002},
}

@Article{Trung15,
 author = {T. D. Nguyen and S. J. Plimpton},
 title = {Accelerating Dissipative Particle Dynamics Simulations for Soft Matter Systems},
 journal = {Comput.\ Mater.\ Sci.},
 year =    2015,
 doi =     {10.1016/j.commatsci.2014.10.068},
 volume =  100,
 pages =   {173--180}
}

@Article{Trung17,
 author = {T. D. Nguyen},
 title = {{GPU}-Accelerated {T}ersoff Potentials for Massively Parallel
    Molecular Dynamics Simulations},
 journal = {Comput.\ Phys.\ Commun.},
 year =    2017,
 doi =     {10.1016/j.cpc.2016.10.020},
 volume =  212,
 pages =   {113--122}
}

@inproceedings{Nikolskiy19,
 author = {V. Nikolskiy and V. Stegailov},
 title = {{GPU} Acceleration of Four-Site Water Models in {LAMMPS}},
 booktitle = {Proceedings of the International Conference on Parallel
    Computing (ParCo 2019), Prague, Czech Republic},
 doi =     {10.3233/APC200086},
 year =    2019
}

CITE-CITE-CITE-CITE-CITE-CITE-CITE-CITE-CITE-CITE-CITE-CITE-CITE

PPPM initialization ...
################################################################################
units           real
boundary        p p p
atom_style      full
neighbor        2.0 bin
neigh_modify    delay 5 every 1

pair_style      lj/cut/coul/long 12.0
bond_style      harmonic
angle_style     harmonic
dihedral_style  fourier
improper_style  cvff
kspace_style    pppm 1e-5
special_bonds   amber

read_data       "sys_init.lmps" extra/special/per/atom 3
Reading data file ...
  orthogonal box = (0 0 0) to (60 60 60)
  reading atoms ...
  4400 atoms
  scanning bonds ...
  scanning angles ...
  scanning dihedrals ...
  scanning impropers ...
  orthogonal box = (0 0 0) to (60 60 60)
  reading bonds ...
  4350 bonds
  reading angles ...
  7200 angles
  reading dihedrals ...
  10050 dihedrals
  reading impropers ...
  300 impropers
Finding 1-2 1-3 1-4 neighbors ...
     4 = max # of 1-2 neighbors
     6 = max # of 1-3 neighbors
    12 = max # of 1-4 neighbors
    19 = max # of special neighbors
include         "system.in.settings"
pair_coeff 1 1 0.0988 3.3152123099438304
pair_coeff 2 2 0.0988 3.3152123099438304
pair_coeff 3 3 0.1078 3.397709531243626
pair_coeff 4 4 0.0208 2.4219972551363265
pair_coeff 5 5 0.0208 2.600176998764394
pair_coeff 6 6 0.0100 1.1064962079303013
pair_coeff 7 7 0.0208 1.8874580242521226
pair_coeff 8 8 0.2638 3.465952373053176
pair_coeff 9 9 0.1636 3.1808647832482673
pair_coeff 10 10 0.0858 3.36510263815969
pair_coeff 11 11 0.1463 3.048120874245357
bond_coeff 1 481.8 1.3340 # SOURCE1_SOURCE5 3727 0.0053
bond_coeff 2 393.9 1.0870 # SOURCE3 789 0.0046
bond_coeff 3 232.5 1.5380 # SOURCE1_SOURCE5 88072 0.0058
bond_coeff 4 375.9 1.0970 # SOURCE3_SOURCE5 112144 0.0055
bond_coeff 5 375.9 1.0970 # SOURCE3_SOURCE5 133628 0.0015
bond_coeff 6 263.8 1.4620 # SOURCE1_SOURCE5 4576 0.0061
bond_coeff 7 261.2 1.4650 # SOURCE1_SOURCE5 15206 0.0039
bond_coeff 8 368.2 1.4060 # SOURCE3 2 0.0370
bond_coeff 9 156.2 1.8030 # SOURCE3_SOURCE5 16 0.0187
bond_coeff 10 356.2 1.3790 # SOURCE1_SOURCE5 9463 0.0137
bond_coeff 11 652.6 1.2180 # SOURCE1_SOURCE5 27083 0.0110
bond_coeff 12 511.3 1.0190 # SOURCE3_SOURCE5 5944 0.0012
angle_coeff 1 71.5 121.81 # SOURCE3 10 0.3843
angle_coeff 2 50.5 119.70 # SOURCE3 1
angle_coeff 3 69.9 120.70 # SOURCE3 1
angle_coeff 4 64.9 111.51 # SOURCE3_SOURCE5 61999 1.8007
angle_coeff 5 46.9 109.56 # SOURCE3_SOURCE5 55294 0.8125
angle_coeff 6 46.8 109.80 # SOURCE3_SOURCE5 179054 0.7972
angle_coeff 7 83.3 111.04 # SOURCE3_SOURCE5 12086 1.5519
angle_coeff 8 83.2 111.61 # SOURCE3_SOURCE5 3543 1.6672
angle_coeff 9 38.8 108.46 # SOURCE3_SOURCE5 50971 0.8222
angle_coeff 10 61.2 109.88 # SOURCE3_SOURCE5 20428 1.2681
angle_coeff 11 61.5 108.88 # SOURCE3_SOURCE5 6816 1.0842
angle_coeff 12 39.0 107.58 # SOURCE3_SOURCE5 92717 0.5328
angle_coeff 13 91.2 119.12 # SOURCE3 2
angle_coeff 14 89.0 120.69 # SOURCE3_SOURCE5 14 1.1076
angle_coeff 15 113.8 123.05 # SOURCE3_SOURCE5 8454 1.5552
angle_coeff 16 65.7 112.35 # SOURCE3_SOURCE5 10425 1.3688
angle_coeff 17 47.8 109.29 # SOURCE3_SOURCE5 6742 0.6614
angle_coeff 18 64.9 115.64 # SOURCE4_SOURCE5 1017 2.0256
angle_coeff 19 65.3 120.69 # SOURCE3_SOURCE5 4556 2.1510
dihedral_coeff 1 1 2.175 2 180.0 # intrpol.bsd.on C6H6
dihedral_coeff 2 1 2.5 2 180.0 # AA,NMA (no c-n3, c-n4, c-nh)
dihedral_coeff 3 1 6.65 2 180.0 # c2=c2 double bond, intrpol.bsd.on C6H6
dihedral_coeff 4 1 0.15555555555555556 3 0.0 # JCC,7,(1986),230
dihedral_coeff 5 1 0.0 2 0.0 # JCC,7,(1986),230
dihedral_coeff 6 1 0.3 3 0.0 # Junmei et al, 1999
dihedral_coeff 7 2 2.175 2 180.0 0.3 3 0.0 # Junmei et al, 1999 TorType=1
dihedral_coeff 8 3 0.13 3 0.0 0.29 2 180.0 0.11 1 0.0 # c42 GA AUE=0.2720 RMSE=0.3206 TorType=2
dihedral_coeff 9 1 0.12 3 0.0 # m1 SS AUE=0.2420 RMSE=0.2944 TorType=2
dihedral_coeff 10 1 0.08 3 0.0 # t2 SS AUE=0.2507 RMSE=0.3027 TorType=3
dihedral_coeff 11 3 0.65 4 180.0 0.03 3 180.0 2.26 1 0.0 # sialic2 GA AUE=1.1541 RMSE=1.2847 TorType=3
dihedral_coeff 12 1 0.225 3 0.0 # c46 SS AUE=0.2936 RMSE=0.3481 TorType=3
dihedral_coeff 13 1 0.0 2 180.0 # c44 SS AUE=0.1670 RMSE=0.1874 TorType=3
dihedral_coeff 14 1 0.217 3 0.0 # m20 SS AUE=0.7039 RMSE=0.8271 TorType=3
dihedral_coeff 15 2 0.58 3 0.0 0.28 2 180.0 # m14 GA AUE=0.4298 RMSE=0.5205 TorType=3
improper_coeff 1 10.5 -1 2 # JCC,7,(1986),230
improper_coeff 2 1.1 -1 2 # JCC,7,(1986),230

################################################################################
# 刚性约束，减少开销
# fix             frigid benzene rigid single
# fix             shake all shake 0.0001 20 0 b 1 a 1

molecule        pre pre_mol.data
Read molecule template pre:
LAMMPS Description Bonding_Atoms  3 17 ['Delete_Atoms 18 11']
  1 molecules
  0 fragments
  19 atoms with max type 11
  18 bonds with max type 12
  30 angles with max type 17
  36 dihedrals with max type 15
  1 impropers with max type 1
molecule        post post_0_mol.data
Read molecule template post:
LAMMPS Description Bonding_Atoms  3 17 ['Delete_Atoms 18 11']
  1 molecules
  0 fragments
  19 atoms with max type 11
  17 bonds with max type 11
  30 angles with max type 19
  40 dihedrals with max type 15
  2 impropers with max type 2

group           N_single molecule <> 1 100
1600 atoms in group N_single
group           Cl_single molecule <> 101 200
1800 atoms in group Cl_single
group           sol subtract all N_single Cl_single
1000 atoms in group sol

minimize        1.0e-5 1.0e-5 100000 400000

CITE-CITE-CITE-CITE-CITE-CITE-CITE-CITE-CITE-CITE-CITE-CITE-CITE

Your simulation uses code contributions which should be cited:

- GPU package (short-range, long-range and three-body potentials): doi:10.1016/j.cpc.2010.12.021, doi:10.1016/j.cpc.2011.10.012, doi:10.1016/j.cpc.2013.08.002, doi:10.1016/j.commatsci.2014.10.068, doi:10.1016/j.cpc.2016.10.020, doi:10.3233/APC200086

@Article{Brown11,
 author = {W. M. Brown and P. Wang and S. J. Plimpton and A. N. Tharrington},
 title = {Implementing Molecular Dynamics on Hybrid High Performance Computers---Short Range Forces},
 journal = {Comput.\ Phys.\ Commun.},
 year =    2011,
 volume =  182,
 pages =   {898--911},
 doi =     {10.1016/j.cpc.2010.12.021}
}

@Article{Brown12,
 author = {W. M. Brown and A. Kohlmeyer and S. J. Plimpton and A. N. Tharrington},
 title = {Implementing Molecular Dynamics on Hybrid High Performance Computers - Particle-Particle Particle-Mesh},
 journal = {Comput.\ Phys.\ Commun.},
 year =    2012,
 volume =  183,
 doi =     {10.1016/j.cpc.2011.10.012},
 pages =   {449--459}
}

@Article{Brown13,
 author = {W. M. Brown and Y. Masako},
 title = {Implementing Molecular Dynamics on Hybrid High Performance Computers---Three-Body Potentials},
 journal = {Comput.\ Phys.\ Commun.},
 year =    2013,
 volume =  184,
 pages =   {2785--2793},
 doi =     {10.1016/j.cpc.2013.08.002},
}

@Article{Trung15,
 author = {T. D. Nguyen and S. J. Plimpton},
 title = {Accelerating Dissipative Particle Dynamics Simulations for Soft Matter Systems},
 journal = {Comput.\ Mater.\ Sci.},
 year =    2015,
 doi =     {10.1016/j.commatsci.2014.10.068},
 volume =  100,
 pages =   {173--180}
}

@Article{Trung17,
 author = {T. D. Nguyen},
 title = {{GPU}-Accelerated {T}ersoff Potentials for Massively Parallel
    Molecular Dynamics Simulations},
 journal = {Comput.\ Phys.\ Commun.},
 year =    2017,
 doi =     {10.1016/j.cpc.2016.10.020},
 volume =  212,
 pages =   {113--122}
}

@inproceedings{Nikolskiy19,
 author = {V. Nikolskiy and V. Stegailov},
 title = {{GPU} Acceleration of Four-Site Water Models in {LAMMPS}},
 booktitle = {Proceedings of the International Conference on Parallel
    Computing (ParCo 2019), Prague, Czech Republic},
 doi =     {10.3233/APC200086},
 year =    2019
}

CITE-CITE-CITE-CITE-CITE-CITE-CITE-CITE-CITE-CITE-CITE-CITE-CITE

PPPM initialization ...
################################################################################
units           real
boundary        p p p
atom_style      full
neighbor        2.0 bin
neigh_modify    delay 5 every 1

pair_style      lj/cut/coul/long 12.0
bond_style      harmonic
angle_style     harmonic
dihedral_style  fourier
improper_style  cvff
kspace_style    pppm 1e-5
special_bonds   amber

read_data       "sys_init.lmps" extra/special/per/atom 3
Reading data file ...
  orthogonal box = (0 0 0) to (60 60 60)
  reading atoms ...
  4400 atoms
  scanning bonds ...
  scanning angles ...
  scanning dihedrals ...
  scanning impropers ...
  orthogonal box = (0 0 0) to (60 60 60)
  reading bonds ...
  4350 bonds
  reading angles ...
  7200 angles
  reading dihedrals ...
  10050 dihedrals
  reading impropers ...
  300 impropers
Finding 1-2 1-3 1-4 neighbors ...
     4 = max # of 1-2 neighbors
     6 = max # of 1-3 neighbors
    12 = max # of 1-4 neighbors
    19 = max # of special neighbors
include         "system.in.settings"
pair_coeff 1 1 0.0988 3.3152123099438304
pair_coeff 2 2 0.0988 3.3152123099438304
pair_coeff 3 3 0.1078 3.397709531243626
pair_coeff 4 4 0.0208 2.4219972551363265
pair_coeff 5 5 0.0208 2.600176998764394
pair_coeff 6 6 0.0100 1.1064962079303013
pair_coeff 7 7 0.0208 1.8874580242521226
pair_coeff 8 8 0.2638 3.465952373053176
pair_coeff 9 9 0.1636 3.1808647832482673
pair_coeff 10 10 0.0858 3.36510263815969
pair_coeff 11 11 0.1463 3.048120874245357
bond_coeff 1 481.8 1.3340 # SOURCE1_SOURCE5 3727 0.0053
bond_coeff 2 393.9 1.0870 # SOURCE3 789 0.0046
bond_coeff 3 232.5 1.5380 # SOURCE1_SOURCE5 88072 0.0058
bond_coeff 4 375.9 1.0970 # SOURCE3_SOURCE5 112144 0.0055
bond_coeff 5 375.9 1.0970 # SOURCE3_SOURCE5 133628 0.0015
bond_coeff 6 263.8 1.4620 # SOURCE1_SOURCE5 4576 0.0061
bond_coeff 7 261.2 1.4650 # SOURCE1_SOURCE5 15206 0.0039
bond_coeff 8 368.2 1.4060 # SOURCE3 2 0.0370
bond_coeff 9 156.2 1.8030 # SOURCE3_SOURCE5 16 0.0187
bond_coeff 10 356.2 1.3790 # SOURCE1_SOURCE5 9463 0.0137
bond_coeff 11 652.6 1.2180 # SOURCE1_SOURCE5 27083 0.0110
bond_coeff 12 511.3 1.0190 # SOURCE3_SOURCE5 5944 0.0012
angle_coeff 1 71.5 121.81 # SOURCE3 10 0.3843
angle_coeff 2 50.5 119.70 # SOURCE3 1
angle_coeff 3 69.9 120.70 # SOURCE3 1
angle_coeff 4 64.9 111.51 # SOURCE3_SOURCE5 61999 1.8007
angle_coeff 5 46.9 109.56 # SOURCE3_SOURCE5 55294 0.8125
angle_coeff 6 46.8 109.80 # SOURCE3_SOURCE5 179054 0.7972
angle_coeff 7 83.3 111.04 # SOURCE3_SOURCE5 12086 1.5519
angle_coeff 8 83.2 111.61 # SOURCE3_SOURCE5 3543 1.6672
angle_coeff 9 38.8 108.46 # SOURCE3_SOURCE5 50971 0.8222
angle_coeff 10 61.2 109.88 # SOURCE3_SOURCE5 20428 1.2681
angle_coeff 11 61.5 108.88 # SOURCE3_SOURCE5 6816 1.0842
angle_coeff 12 39.0 107.58 # SOURCE3_SOURCE5 92717 0.5328
angle_coeff 13 91.2 119.12 # SOURCE3 2
angle_coeff 14 89.0 120.69 # SOURCE3_SOURCE5 14 1.1076
angle_coeff 15 113.8 123.05 # SOURCE3_SOURCE5 8454 1.5552
angle_coeff 16 65.7 112.35 # SOURCE3_SOURCE5 10425 1.3688
angle_coeff 17 47.8 109.29 # SOURCE3_SOURCE5 6742 0.6614
angle_coeff 18 64.9 115.64 # SOURCE4_SOURCE5 1017 2.0256
angle_coeff 19 65.3 120.69 # SOURCE3_SOURCE5 4556 2.1510
dihedral_coeff 1 1 2.175 2 180.0 # intrpol.bsd.on C6H6
dihedral_coeff 2 1 2.5 2 180.0 # AA,NMA (no c-n3, c-n4, c-nh)
dihedral_coeff 3 1 6.65 2 180.0 # c2=c2 double bond, intrpol.bsd.on C6H6
dihedral_coeff 4 1 0.15555555555555556 3 0.0 # JCC,7,(1986),230
dihedral_coeff 5 1 0.0 2 0.0 # JCC,7,(1986),230
dihedral_coeff 6 1 0.3 3 0.0 # Junmei et al, 1999
dihedral_coeff 7 2 2.175 2 180.0 0.3 3 0.0 # Junmei et al, 1999 TorType=1
dihedral_coeff 8 3 0.13 3 0.0 0.29 2 180.0 0.11 1 0.0 # c42 GA AUE=0.2720 RMSE=0.3206 TorType=2
dihedral_coeff 9 1 0.12 3 0.0 # m1 SS AUE=0.2420 RMSE=0.2944 TorType=2
dihedral_coeff 10 1 0.08 3 0.0 # t2 SS AUE=0.2507 RMSE=0.3027 TorType=3
dihedral_coeff 11 3 0.65 4 180.0 0.03 3 180.0 2.26 1 0.0 # sialic2 GA AUE=1.1541 RMSE=1.2847 TorType=3
dihedral_coeff 12 1 0.225 3 0.0 # c46 SS AUE=0.2936 RMSE=0.3481 TorType=3
dihedral_coeff 13 1 0.0 2 180.0 # c44 SS AUE=0.1670 RMSE=0.1874 TorType=3
dihedral_coeff 14 1 0.217 3 0.0 # m20 SS AUE=0.7039 RMSE=0.8271 TorType=3
dihedral_coeff 15 2 0.58 3 0.0 0.28 2 180.0 # m14 GA AUE=0.4298 RMSE=0.5205 TorType=3
improper_coeff 1 10.5 -1 2 # JCC,7,(1986),230
improper_coeff 2 1.1 -1 2 # JCC,7,(1986),230

################################################################################
# 刚性约束，减少开销
# fix             frigid benzene rigid single
# fix             shake all shake 0.0001 20 0 b 1 a 1

molecule        pre pre_mol.data
Read molecule template pre:
LAMMPS Description Bonding_Atoms  3 17 ['Delete_Atoms 18 11']
  1 molecules
  0 fragments
  19 atoms with max type 11
  18 bonds with max type 12
  30 angles with max type 17
  36 dihedrals with max type 15
  1 impropers with max type 1
molecule        post post_0_mol.data
Read molecule template post:
LAMMPS Description Bonding_Atoms  3 17 ['Delete_Atoms 18 11']
  1 molecules
  0 fragments
  19 atoms with max type 11
  17 bonds with max type 11
  30 angles with max type 19
  40 dihedrals with max type 15
  2 impropers with max type 2

group           N_single molecule <> 1 100
1600 atoms in group N_single
group           Cl_single molecule <> 101 200
1800 atoms in group Cl_single
group           sol subtract all N_single Cl_single
1000 atoms in group sol

minimize        1.0e-5 1.0e-5 100000 400000

CITE-CITE-CITE-CITE-CITE-CITE-CITE-CITE-CITE-CITE-CITE-CITE-CITE

Your simulation uses code contributions which should be cited:

- GPU package (short-range, long-range and three-body potentials): doi:10.1016/j.cpc.2010.12.021, doi:10.1016/j.cpc.2011.10.012, doi:10.1016/j.cpc.2013.08.002, doi:10.1016/j.commatsci.2014.10.068, doi:10.1016/j.cpc.2016.10.020, doi:10.3233/APC200086

@Article{Brown11,
 author = {W. M. Brown and P. Wang and S. J. Plimpton and A. N. Tharrington},
 title = {Implementing Molecular Dynamics on Hybrid High Performance Computers---Short Range Forces},
 journal = {Comput.\ Phys.\ Commun.},
 year =    2011,
 volume =  182,
 pages =   {898--911},
 doi =     {10.1016/j.cpc.2010.12.021}
}

@Article{Brown12,
 author = {W. M. Brown and A. Kohlmeyer and S. J. Plimpton and A. N. Tharrington},
 title = {Implementing Molecular Dynamics on Hybrid High Performance Computers - Particle-Particle Particle-Mesh},
 journal = {Comput.\ Phys.\ Commun.},
 year =    2012,
 volume =  183,
 doi =     {10.1016/j.cpc.2011.10.012},
 pages =   {449--459}
}

@Article{Brown13,
 author = {W. M. Brown and Y. Masako},
 title = {Implementing Molecular Dynamics on Hybrid High Performance Computers---Three-Body Potentials},
 journal = {Comput.\ Phys.\ Commun.},
 year =    2013,
 volume =  184,
 pages =   {2785--2793},
 doi =     {10.1016/j.cpc.2013.08.002},
}

@Article{Trung15,
 author = {T. D. Nguyen and S. J. Plimpton},
 title = {Accelerating Dissipative Particle Dynamics Simulations for Soft Matter Systems},
 journal = {Comput.\ Mater.\ Sci.},
 year =    2015,
 doi =     {10.1016/j.commatsci.2014.10.068},
 volume =  100,
 pages =   {173--180}
}

@Article{Trung17,
 author = {T. D. Nguyen},
 title = {{GPU}-Accelerated {T}ersoff Potentials for Massively Parallel
    Molecular Dynamics Simulations},
 journal = {Comput.\ Phys.\ Commun.},
 year =    2017,
 doi =     {10.1016/j.cpc.2016.10.020},
 volume =  212,
 pages =   {113--122}
}

@inproceedings{Nikolskiy19,
 author = {V. Nikolskiy and V. Stegailov},
 title = {{GPU} Acceleration of Four-Site Water Models in {LAMMPS}},
 booktitle = {Proceedings of the International Conference on Parallel
    Computing (ParCo 2019), Prague, Czech Republic},
 doi =     {10.3233/APC200086},
 year =    2019
}

CITE-CITE-CITE-CITE-CITE-CITE-CITE-CITE-CITE-CITE-CITE-CITE-CITE

PPPM initialization ...
  G vector (1/distance) = 0.19301666
  grid = 18 18 18
  stencil order = 5
  estimated absolute RMS force accuracy = 0.002883159
  estimated relative force accuracy = 8.6825476e-06
  3d grid and FFT values/proc = 12167 5832
Generated 55 of 55 mixed pair_coeff terms from geometric mixing rule
Step          Temp          E_pair         E_mol          TotEng         Press
0   0              3722.0591      4403.7056      8125.7647     -766.44693
Loop time of 46.565 on 1 procs for 7344 steps with 4400 atoms

Minimization stats:
  Stopping criterion = energy tolerance
  Energy initial, next-to-last, final =
  Force two-norm initial, final = 3942.0421 5.5167138
  Force max component initial, final = 927.84662 0.40008689
  Final line search alpha, max atom move = 8.449875e-10 3.3806842e-10
  Iterations, force evaluations = 7344 14729

  G vector (1/distance) = 0.19301666
  grid = 18 18 18
  stencil order = 5
  estimated absolute RMS force accuracy = 0.002883159
  estimated relative force accuracy = 8.6825476e-06
  3d grid and FFT values/proc = 12167 5832
Generated 55 of 55 mixed pair_coeff terms from geometric mixing rule
Step          Temp          E_pair         E_mol          TotEng         Press
0   0              3722.0591      4403.7056      8125.7647     -766.44693
Loop time of 48.1191 on 1 procs for 6837 steps with 4400 atoms

Minimization stats:
  Stopping criterion = energy tolerance
  Energy initial, next-to-last, final =
  Force two-norm initial, final = 3942.0421 6.0023251
  Force max component initial, final = 927.84662 0.99333543
  Final line search alpha, max atom move = 0.010228937 0.010160766
  Iterations, force evaluations = 6837 13668

  G vector (1/distance) = 0.19301666
  grid = 18 18 18
  stencil order = 5
  estimated absolute RMS force accuracy = 0.002883159
  estimated relative force accuracy = 8.6825476e-06
  3d grid and FFT values/proc = 12167 5832
Generated 55 of 55 mixed pair_coeff terms from geometric mixing rule
Step          Temp          E_pair         E_mol          TotEng         Press
0   0              3722.0591      4403.7056      8125.7647     -766.44693
Loop time of 48.8387 on 1 procs for 7675 steps with 4400 atoms

Minimization stats:
  Stopping criterion = linesearch alpha is zero
  Energy initial, next-to-last, final =
  Force two-norm initial, final = 3942.0421 4.2280872
  Force max component initial, final = 927.84662 0.54076687
  Final line search alpha, max atom move = 4.3191893e-10 2.3356745e-10
  Iterations, force evaluations = 7675 15440

min_style       cg
reset_timestep  0

thermo          100
thermo_style    custom step temp pe press density

fix             file_balance_out all print 100 "$(step) $(pe) $(time) $(press) $(temp)" file "balance.log" title "step E time press T"
timestep        1
velocity        all create 298.15 4928459 rot yes dist gaussian

# fix             relax_md all nvt temp 298.15 298.15 100.0

# # 20ps
# run             20000
# unfix           relax_md
# write_dump      all xyz system_after_bal_npt.xyz modify element C C C H H H H Cl N N O

reset_timestep  0
fix             relax_md2 all npt temp 298.15 298.15 100.0 iso 1.0 1.0 1000.0
# 20ps
run             20000
PPPM initialization ...
  G vector (1/distance) = 0.19301666
  grid = 18 18 18
  stencil order = 5
  estimated absolute RMS force accuracy = 0.002883159
  estimated relative force accuracy = 8.6825476e-06
  3d grid and FFT values/proc = 12167 5832
Generated 55 of 55 mixed pair_coeff terms from geometric mixing rule
Step          Temp          PotEng         Press         Density
0   298.15         79.975963      809.30413      0.30342505
Averages over the last 47 of 93 rows, steps 2300 to 4600:
Temp PotEng Press Density
2257.11 3909.41 -18.7347 145.887
4700 4306.7183123756003624 4700 -4WARNING: System is not charge neutral, net charge = 4.6e-05 (src/kspace.cpp:327)
  G vector (1/distance) = 0.19301666
  grid = 18 18 18
  stencil order = 5
  estimated absolute RMS force accuracy = 0.002883159
  estimated relative force accuracy = 8.6825476e-06
  3d grid and FFT values/proc = 12167 5832
Generated 55 of 55 mixed pair_coeff terms from geometric mixing rule
Step          Temp          E_pair         E_mol          TotEng         Press
0   0              3722.0591      4403.7056      8125.7647     -766.44693
Loop time of 62.3659 on 1 procs for 8892 steps with 4400 atoms

Minimization stats:
  Stopping criterion = linesearch alpha is zero
  Energy initial, next-to-last, final =
  Force two-norm initial, final = 3942.0421 6.580356
  Force max component initial, final = 927.84662 1.1062798
  Final line search alpha, max atom move = 2.341747e-10 2.5906274e-10
  Iterations, force evaluations = 8892 17859

min_style       cg
reset_timestep  0

thermo          100
thermo_style    custom step temp pe press density

fix             file_balance_out all print 100 "$(step) $(pe) $(time) $(press) $(temp)" file "balance.log" title "step E time press T"
timestep        1
velocity        all create 298.15 4928459 rot yes dist gaussian

# fix             relax_md all nvt temp 298.15 298.15 100.0

# # 20ps
# run             20000
# unfix           relax_md
# write_dump      all xyz system_after_bal_npt.xyz modify element C C C H H H H Cl N N O

reset_timestep  0
fix             relax_md2 all npt temp 298.15 298.15 100.0 iso 1.0 1.0 1000.0
# 20ps
run             20000
PPPM initialization ...
  G vector (1/distance) = 0.19301666
  grid = 18 18 18
  stencil order = 5
  estimated absolute RMS force accuracy = 0.002883159
  estimated relative force accuracy = 8.6825476e-06
  3d grid and FFT values/proc = 12167 5832
Generated 55 of 55 mixed pair_coeff terms from geometric mixing rule
Step          Temp          PotEng         Press         Density
0   298.15         54.607438      815.74067      0.30342505
Averages over the last 47 of 93 rows, steps 2300 to 4600:
Temp PotEng Press Density
2251.4 3904.19 -47.6255 146.357
4700 4393.9486040946521825min_style       cg
reset_timestep  0

thermo          100
thermo_style    custom step temp pe press density

fix             file_balance_out all print 100 "$(step) $(pe) $(time) $(press) $(temp)" file "balance.log" title "step E time press T"
timestep        1
velocity        all create 298.15 4928459 rot yes dist gaussian

# fix             relax_md all nvt temp 298.15 298.15 100.0

# # 20ps
# run             20000
# unfix           relax_md
# write_dump      all xyz system_after_bal_npt.xyz modify element C C C H H H H Cl N N O

reset_timestep  0
fix             relax_md2 all npt temp 298.15 298.15 100.0 iso 1.0 1.0 1000.0
# 20ps
run             20000
PPPM initialization ...
  G vector (1/distance) = 0.19301666
  grid = 18 18 18
  stencil order = 5
  estimated absolute RMS force accuracy = 0.002883159
  estimated relative force accuracy = 8.6825476e-06
  3d grid and FFT values/proc = 12167 5832
Generated 55 of 55 mixed pair_coeff terms from geometric mixing rule
Step          Temp          PotEng         Press         Density
0   298.15         108.30051      802.85234      0.30342505
Averages over the last 47 of 93 rows, steps 2300 to 4600:
Temp PotEng Press Density
2254.72 3907.38 15.8697 145.798
10200 4247.0386927562067285 10200 -215.10950716147982575 302.min_style       cg
reset_timestep  0

thermo          100
thermo_style    custom step temp pe press density

fix             file_balance_out all print 100 "$(step) $(pe) $(time) $(press) $(temp)" file "balance.log" title "step E time press T"
timestep        1
velocity        all create 298.15 4928459 rot yes dist gaussian

# fix             relax_md all nvt temp 298.15 298.15 100.0

# # 20ps
# run             20000
# unfix           relax_md
# write_dump      all xyz system_after_bal_npt.xyz modify element C C C H H H H Cl N N O

reset_timestep  0
fix             relax_md2 all npt temp 298.15 298.15 100.0 iso 1.0 1.0 1000.0
# 20ps
run             20000
PPPM initialization ...
  G vector (1/distance) = 0.19301666
  grid = 18 18 18
  stencil order = 5
  estimated absolute RMS force accuracy = 0.002883159
  estimated relative force accuracy = 8.6825476e-06
  3d grid and FFT values/proc = 12167 5832
Generated 55 of 55 mixed pair_coeff terms from geometric mixing rule
Step          Temp          PotEng         Press         Density
0   298.15         30.925396      808.94432      0.30342505
Averages over the last 47 of 93 rows, steps 2300 to 4600:
Temp PotEng Press Density
2221.51 3871.66 -67.9963 146.234
4700 4241.519786257596987
Loop time of 61.1198 on 1 procs for 20000 steps with 4400 atoms

unfix           relax_md2
unfix           file_balance_out
write_dump      all xyz system_after_bal_npt.xyz modify element C C C H H H H Cl N N O

neigh_modify    delay 5 every 1 check yes one 10000
reset_timestep  0
dump            dump_xlink all xyz 10000 dump_xlink.xyz
dump_modify     dump_xlink element C C C H H H H Cl N N O

dump            dump_xlink_custom all custom 10000 dump_xlink.custom id type q x y z

fix             xlink_fix all bond/react stabilization yes noact_grp .03                     react rxn1 all 100 0.0 5.0 pre post automap.data stabilize_steps 60
ERROR: Fix bond/react: Atom type affected by reaction rxn1 is too close to template edge (src/REACTION/fix_bond_react.cpp:2582)
Last input line: fix xlink_fix all bond/react stabilization yes noact_grp .03 react rxn1 all 100 0.0 5.0 pre post automap.data stabilize_steps 60
